$ MSC.Nastran input file created on March     09, 2026 at 19:59:58 by
$ Patran 2024.1  (Student Edition)
$ Direct Text Input for Nastran System Cell Section
$ Direct Text Input for File Management Section
$ Direct Text Input for Executive Control
$ Linear Static Analysis, Database
SOL 101
CEND
$ Direct Text Input for Global Case Control Data
TITLE = MSC.Nastran job created on 08-Mar-26 at 23:01:21
ECHO = NONE
SUBCASE 1
$ Subcase name : Default
   SUBTITLE=Default
   SPC = 2
   LOAD = 2
   TEMPERATURE(LOAD) = 4
   DISPLACEMENT(SORT1,REAL)=ALL
   SPCFORCES(SORT1,REAL)=ALL
   STRESS(SORT1,REAL,VONMISES,BILIN)=ALL
BEGIN BULK
$ Direct Text Input for Bulk Data
HDF5OUT PRCISION 32     CMPRMTHD LZ4     LEVEL   5
PARAM   PRTMAXIM YES
$ Elements and Element Properties for region : Shell
PSHELL   1       1       50.     1               1
$ Pset: "Shell" will be imported as: "pshell.1"
CQUAD4   1       1       1       2       23      22
CQUAD4   2       1       2       3       24      23
CQUAD4   3       1       3       4       25      24
CQUAD4   4       1       4       5       26      25
CQUAD4   5       1       5       6       27      26
CQUAD4   6       1       6       7       28      27
CQUAD4   7       1       7       8       29      28
CQUAD4   8       1       8       9       30      29
CQUAD4   9       1       9       10      31      30
CQUAD4   10      1       10      11      32      31
CQUAD4   11      1       11      12      33      32
CQUAD4   12      1       12      13      34      33
CQUAD4   13      1       13      14      35      34
CQUAD4   14      1       14      15      36      35
CQUAD4   15      1       15      16      37      36
CQUAD4   16      1       16      17      38      37
CQUAD4   17      1       17      18      39      38
CQUAD4   18      1       18      19      40      39
CQUAD4   19      1       19      20      41      40
CQUAD4   20      1       20      21      42      41
$ ... 580 like lines cut
$ Referenced Material Records
$ Material Record : Alluminio
$ Description of Material : Date: 08-Mar-26           Time: 22:29:45
MAT1*    1               70000.                          .33
*                        2.3000001-5     293.14999
$ Nodes of the Entire Model
GRID     1               10000.  0.      0.
GRID*    2                               9997.944335937578.5044021606445
*        0.
GRID*    3                               9991.783203125 156.791168212891
*        0.
GRID*    4                               9981.533203125 234.649520874023
*        0.
GRID*    5                               9967.2216796875311.865173339844
*        0.
GRID*    6                               9948.8896484375388.226501464844
*        0.
GRID*    7                               9926.5849609375463.525024414062
*        0.
GRID*    8                               9900.3701171875537.552307128906
*        0.
GRID*    9                               9870.318359375 610.104858398438
*        0.
GRID*    10                              9836.509765625 680.985229492188
*        0.
GRID*    11                              9799.0390625    749.99853515625
*        0.
GRID*    12                              9758.0068359375816.956909179688
*        0.
GRID*    13                              9713.5263671875881.676635742188
*        0.
GRID*    14                              9665.71875     943.980590820312
*        0.
GRID*    15                              9614.716796875 1003.69653320312
*        0.
GRID*    16                              9560.66015625  1060.66040039062
*        0.
GRID*    17                              9503.69628906251114.71691894531
*        0.
GRID*    18                              9443.98144531251165.71838378906
*        0.
GRID*    19                              9381.67871093751213.52478027344
*        0.
GRID*    20                              9316.958984375 1258.00561523438
*        0.
GRID*    21                              9250.           1299.0380859375
*        0.
$ ... 1260 like lines cut
$ Loads for Load Case : Default
SPCADD   2       1
LOAD     2       1.      1.      1       1.      3
$ Nodal Temperatures of Load Set : Gradiente_termico
TEMP*    4               1               213.14999       2
*        213.14999       3               213.14999
TEMP*    4               4               213.14999       5
*        213.14999       6               213.14999
TEMP*    4               7               213.14999       8
*        213.14999       9               213.14999
TEMP*    4               10              213.14999       11
*        213.14999       12              213.14999
TEMP*    4               13              213.14999       14
*        213.14999       15              213.14999
TEMP*    4               16              213.14999       17
*        213.14999       18              213.14999
TEMP*    4               19              213.14999       20
*        213.14999       21              213.14999
TEMP*    4               22              213.14999       23
*        213.14999       24              213.14999
TEMP*    4               25              213.14999       26
*        213.14999       27              213.14999
TEMP*    4               28              213.14999       29
*        213.14999       30              213.14999
TEMP*    4               31              213.14999       32
*        213.14999       33              213.14999
TEMP*    4               34              213.14999       35
*        213.14999       36              213.14999
TEMP*    4               37              213.14999       38
*        213.14999       39              213.14999
TEMP*    4               40              213.14999       41
*        213.14999       42              213.14999
TEMP*    4               43              213.14999       44
*        213.14999       45              213.14999
TEMP*    4               46              213.14999       47
*        213.14999       48              213.14999
TEMP*    4               49              213.14999       50
*        213.14999       51              213.14999
TEMP*    4               52              213.14999       53
*        213.14999       54              213.14999
TEMP*    4               55              213.14999       56
*        213.14999       57              213.14999
TEMP*    4               58              213.14999       59
*        213.14999       60              213.14999
$ ... 394 like lines cut
$ Displacement Constraints of Load Set : Appoggio
SPC1     1       123     1       THRU    22
SPC1     1       123     42      43      63      64      84      85
         105     106     126     127     147     148     168     169
         189     190     210     211     231     232     252     253
         273     274     294     295     315     316     336     337
         357     358     378     379     399     400     420     421
         441     442     462     463     483     484     504     505
         525     526     546     547     567     568     588     589
         609     610
SPC1     1       123     630     THRU    651
$ Pressure Loads of Load Set : Pressione
PLOAD4   1       1       -.1                             THRU    600
PLOAD4   3       1       0.                              THRU    600
$ Referenced Coordinate Frames
ENDDATA 204a5249
